89

C         37.01800       30.83500       36.48900
C         37.69800       31.25500       35.33900
C         37.05800       32.07300       34.39900
C         35.69800       31.24500       36.68900
C         35.07800       32.10300       35.76900
C         35.78800       32.59300       34.66900
C         34.95800       33.47300       33.81900
C         34.73800       32.95300       32.47900
C         34.05800       32.73300       30.49900
C         34.90800       31.59500       30.60900
C         35.29800       31.76300       31.91900
C         34.39800       34.64300       34.25900
C         34.68800       35.20300       35.53900
C         33.84800       36.28300       35.67900
C         33.13800       36.44300       34.44900
C         32.16800       37.47300       34.10900
C         31.80800       38.37300       35.21900
C         31.25800       37.88300       36.40900
C         30.70800       38.70300       37.39900
C         30.78800       40.08300       37.18900
C         31.40800       40.62300       36.05900
C         31.96800       39.75300       35.10900
C         31.38800       37.57300       32.99900
C         30.27800       38.46300       32.88900
C         29.76800       38.19300       31.63900
C         30.58800       37.19300       31.02900
C         30.45800       36.71300       29.66900
C         29.29800       37.32300       28.98900
C         29.50800       38.27300       27.98900
C         28.41800       38.94300       27.40900
C         27.09800       38.67300       27.77900
C         26.90800       37.67300       28.73900
C         27.97800       37.01300       29.33900
C         31.18800       35.65300       29.19900
C         30.82800       35.13300       27.91900
C         31.62800       34.01300       27.83900
C         32.48800       33.97300       28.97900
C         33.50800       32.97300       29.26900
C         33.87800       32.17300       28.08900
C         32.90800       31.34500       27.49900
C         33.20800       30.71500       26.28900
C         34.45800       30.86500       25.67900
C         35.40800       31.69500       26.27900
C         35.11800       32.35300       27.47900
H         38.69800       30.87500       35.12900
H         37.70800       32.43300       33.61900
H         35.04800       30.91500       37.48900
H         34.07800       32.48300       35.96900
H         35.87800       31.01500       32.45900
H         35.18800       30.78500       29.94900
H         35.32800       34.73300       36.26900
H         33.86800       36.88300       36.57900
H         32.47800       40.26300       34.28900
H         31.41800       41.69300       35.87900
H         30.29800       38.17300       38.25900
H         31.14800       36.81300       36.58900
H         29.99800       39.23300       33.59900
H         28.96800       38.71300       31.13900
H         30.51800       38.52300       27.66900
H         28.57800       39.66300       26.60900
H         25.92800       37.42300       29.13900
H         27.78800       36.27300       30.11900
H         30.00800       35.36300       27.24900
H         31.48800       33.32300       27.01900
H         31.94800       31.21500       27.98900
H         32.48800       30.02500       25.84900
H         36.29800       32.05300       25.75900
H         35.79800       33.10300       27.87900
N         33.96800       33.54300       31.58900
N         33.48800       35.45300       33.64900
N         31.52800       36.80300       31.86900
N         32.22800       34.98300       29.78900
C         34.73800       30.32500       24.01900
C         25.82800       39.75300       27.18900
C         29.92800       41.12300       38.32900
C         37.67800       29.65500       37.61900
H         38.64958       29.43419       37.22890
H         37.58241       30.15499       38.56016
H         36.99551       28.84042       37.49424
H         35.80154       30.32500       23.90164
H         34.33180       29.33535       24.04116
H         34.20013       31.12076       23.54744
H         29.96491       40.71695       39.31827
H         30.38674       42.08488       38.23281
H         28.95707       41.15242       37.88031
H         25.17425       39.92195       28.01904
H         26.31228       40.64818       26.85881
H         25.38609       39.20061       26.38620
Zn        32.88800       35.28300       31.68900
