19

C         23.42900        2.94400       -2.72900
N         24.31900        2.01900       -3.47100
C         25.18500        1.07300       -2.97600
N         25.81400        0.43500       -3.92300
C         25.33400        0.99400       -5.09800
C         25.65000        0.70700       -6.45200
O         26.45200       -0.13600       -6.86900
N         24.93400        1.50600       -7.33500
C         24.02300        2.46800       -6.97000
N         23.43100        3.14100       -7.97300
N         23.72200        2.74300       -5.71000
C         24.40400        1.98000       -4.83400
H         22.70600        3.35800       -3.40000
H         25.32200        0.88900       -1.97000
H         23.65900        2.93200       -8.90800
H         22.77000        3.84200       -7.77200
H         25.09400        1.37000       -8.31300
H         22.92700        2.40800       -1.95000
H         24.01200        3.73300       -2.30100
